&HEAD CHID='birch_tga_gronli_2', TITLE='Birch kinetics gronli scheme' / 

{% set TGA_RATE=2 %}
{% include "gronli_base.fds" %}

&TAIL/