&HEAD CHID='birch_cone_50', TITLE='Birch cone calorimeter.  gronli scheme' / 

{% set EFLUX=50 %}
{% include "Cone_Base.fds" %}

&TAIL/